Uncertainty/data/case-ln/case_ln_135.py
from numpy import array
def case_ln_135():
	ppc = {"version": '2'}
	ppc["baseMVA"] = 100.0
	ppc["bus"] = array([
		[1.0,    1.0, 69.6365,    18.5697,    0.0,          0.0,          1.0, 1.0,      0.0,      220.0,    1.0, 1.1,      0.95,     0.6, 10   ],
		[2.0,    1.0, 0.0,        0.0,        0.0,          0.0,          1.0, 1.0,      0.0,      220.0,    1.0, 1.1,      0.95,     0.6, 10   ],
		[3.0,    1.0, 0.0,        0.0,        0.0,          0.0,          1.0, 1.0,      0.0,      220.0,    1.0, 1.1,      0.95,     0.6, 10   ],
		[4.0,    2.0, 0.0,        0.0,        0.0,          0.0,          1.0, 1.0,      0.0,      35.0,     1.0, 1.1,      0.95,     0.6, 10   ],
		[5.0,    2.0, 0.0,        0.0,        0.0,          0.0,          1.0, 1.0,      0.0,      35.0,     1.0, 1.1,      0.95,     0.6, 10   ],
		[6.0,    1.0, 13.9273,    5.1067,     0.0,          0.0,          1.0, 1.0,      0.0,      220.0,    1.0, 1.1,      0.95,     0.6, 10   ],
		[7.0,    1.0, 0.0,        0.0,        0.0,          0.0,          1.0, 1.0,      0.0,      220.0,    1.0, 1.1,      0.95,     0.6, 10   ],
		[8.0,    1.0, 0.0,        0.0,        0.0,          0.0,          1.0, 1.0,      0.0,      220.0,    1.0, 1.1,      0.95,     0.6, 10   ],
		[9.0,    1.0, 0.0,        0.0,        0.0,          0.0,          1.0, 1.0,      0.0,      11.0,     1.0, 1.1,      0.95,     0.6, 10   ],
		[10.0,   1.0, 0.0,        0.0,        0.0,          0.0,          1.0, 1.0,      0.0,      11.0,     1.0, 1.1,      0.95,     0.6, 10   ],
		[11.0,   1.0, 0.0,        0.0,        0.0,          0.0,          1.0, 1.0,      0.0,      66.0,     1.0, 1.1,      0.95,     0.6, 10   ],
		[12.0,   1.0, 0.0,        0.0,        0.0,          0.0,          1.0, 1.0,      0.0,      66.0,     1.0, 1.1,      0.95,     0.6, 10   ],
		[13.0,   2.0, 0.0,        0.0,        0.0,          0.0,          1.0, 1.0,      0.0,      35.0,     1.0, 1.1,      0.95,     0.6, 10   ],
		[14.0,   2.0, 0.0,        0.0,        0.0,          0.0,          1.0, 1.0,      0.0,      35.0,     1.0, 1.1,      0.95,     0.6, 10   ],
		[15.0,   2.0, 0.0,        0.0,        0.0,          0.0,          1.0, 1.0,      0.0,      66.0,     1.0, 1.1,      0.95,     0.6, 10   ],
		[16.0,   2.0, 0.0,        0.0,        0.0,          0.0,          1.0, 1.0,      0.0,      66.0,     1.0, 1.1,      0.95,     0.6, 10   ],
		[17.0,   2.0, 0.0,        0.0,        0.0,          0.0,          1.0, 1.0,      0.0,      66.0,     1.0, 1.1,      0.95,     0.6, 10   ],
		[18.0,   2.0, 0.0,        0.0,        0.0,          0.0,          1.0, 1.0,      0.0,      66.0,     1.0, 1.1,      0.95,     0.6, 10   ],
		[19.0,   2.0, 0.0,        0.0,        0.0,          0.0,          1.0, 1.0,      0.0,      35.0,     1.0, 1.1,      0.95,     0.6, 10   ],
		[20.0,   2.0, 0.0,        0.0,        0.0,          0.0,          1.0, 1.0,      0.0,      35.0,     1.0, 1.1,      0.95,     0.6, 10   ],
		[21.0,   2.0, 0.0,        0.0,        0.0,          0.0,          1.0, 1.0,      0.0,      35.0,     1.0, 1.1,      0.95,     0.6, 10   ],
		[22.0,   2.0, 0.0,        0.0,        0.0,          0.0,          1.0, 1.0,      0.0,      35.0,     1.0, 1.1,      0.95,     0.6, 10   ],
		[23.0,   2.0, 0.0,        0.0,        0.0,          0.0,          1.0, 1.0,      0.0,      35.0,     1.0, 1.1,      0.95,     0.6, 10   ],
		[24.0,   2.0, 4.6424,     2.7854,     0.0,          0.0,          1.0, 1.0,      0.0,      6.3,      1.0, 1.1,      0.95,     0.6, 10   ],
		[25.0,   2.0, 0.0,        0.0,        0.0,          0.0,          1.0, 1.0,      0.0,      35.0,     1.0, 1.1,      0.95,     0.6, 10   ],
		[26.0,   2.0, 0.0,        0.0,        0.0,          0.0,          1.0, 1.0,      0.0,      35.0,     1.0, 1.1,      0.95,     0.6, 10   ],
		[27.0,   2.0, 0.0,        0.0,        0.0,          0.0,          1.0, 1.0,      0.0,      35.0,     1.0, 1.1,      0.95,     0.6, 10   ],
		[28.0,   2.0, 0.0,        0.0,        0.0,          0.0,          1.0, 1.0,      0.0,      35.0,     1.0, 1.1,      0.95,     0.6, 10   ],
		[29.0,   2.0, 0.0,        0.0,        0.0,          0.0,          1.0, 1.0,      0.0,      35.0,     1.0, 1.1,      0.95,     0.6, 10   ],
		[30.0,   2.0, 0.0,        0.0,        0.0,          0.0,          1.0, 1.0,      0.0,      13.8,     1.0, 1.1,      0.95,     0.6, 10   ],
		[31.0,   2.0, 0.0,        0.0,        0.0,          0.0,          1.0, 1.0,      0.0,      13.8,     1.0, 1.1,      0.95,     0.6, 10   ],
		[32.0,   2.0, 3.2497,     2.7855,     0.0,          0.0,          1.0, 1.0,      0.0,      20.0,     1.0, 1.1,      0.95,     0.6, 10   ],
		[33.0,   2.0, 2.7855,     2.7855,     0.0,          0.0,          1.0, 1.0,      0.0,      15.75,    1.0, 1.1,      0.95,     0.6, 10   ],
		[34.0,   2.0, 2.7855,     2.7855,     0.0,          0.0,          1.0, 1.0,      0.0,      15.75,    1.0, 1.1,      0.95,     0.6, 10   ],
		[35.0,   2.0, 6.4994,     2.7855,     0.0,          0.0,          1.0, 1.0,      0.0,      24.0,     1.0, 1.1,      0.95,     0.6, 10   ],
		[36.0,   1.0, 0.0,        0.0,        0.0,          0.0,          1.0, 1.0,      0.0,      220.0,    1.0, 1.1,      0.95,     0.6, 10   ],
		[37.0,   1.0, 0.0,        0.0,        0.0,          0.0,          1.0, 1.0,      0.0,      220.0,    1.0, 1.1,      0.95,     0.6, 10   ],
		[38.0,   1.0, 0.0,        0.0,        0.0,          0.0,          1.0, 1.0,      0.0,      220.0,    1.0, 1.1,      0.95,     0.6, 10   ],
		[39.0,   1.0, 0.0,        0.0,        0.0,          0.0,          1.0, 1.0,      0.0,      220.0,    1.0, 1.1,      0.95,     0.6, 10   ],
		[40.0,   1.0, 0.0,        0.0,        0.0,          0.0,          1.0, 1.0,      0.0,      220.0,    1.0, 1.1,      0.95,     0.6, 10   ],
		[41.0,   1.0, 0.0,        0.0,        0.0,          0.0,          1.0, 1.0,      0.0,      220.0,    1.0, 1.1,      0.95,     0.6, 10   ],
		[42.0,   1.0, 0.0,        0.0,        0.0,          0.0,          1.0, 1.0,      0.0,      220.0,    1.0, 1.1,      0.95,     0.6, 10   ],
		[43.0,   1.0, 78.7357,    2.9526,     5e-07,        -5e-07,       1.0, 1.0,      0.0,      220.0,    1.0, 1.1,      0.95,     0.6, 10   ],
		[44.0,   1.0, 92.8487,    5.8123,     5e-07,        -5e-07,       1.0, 1.0,      0.0,      220.0,    1.0, 1.1,      0.95,     0.6, 10   ],
		[45.0,   1.0, 92.8487,    5.8123,     5e-07,        -5e-07,       1.0, 1.0,      0.0,      220.0,    1.0, 1.1,      0.95,     0.6, 10   ],
		[46.0,   1.0, 92.8487,    5.8123,     5e-07,        -5e-07,       1.0, 1.0,      0.0,      220.0,    1.0, 1.1,      0.95,     0.6, 10   ],
		[47.0,   1.0, 92.8487,    5.8123,     5e-07,        -5e-07,       1.0, 1.0,      0.0,      220.0,    1.0, 1.1,      0.95,     0.6, 10   ],
		[48.0,   1.0, 46.4243,    6.0444,     1e-06,        -1e-06,       1.0, 1.0,      0.0,      220.0,    1.0, 1.1,      0.95,     0.6, 10   ],
		[49.0,   1.0, 96.5626,    6.0444,     5e-07,        -5e-07,       1.0, 1.0,      0.0,      220.0,    1.0, 1.1,      0.95,     0.6, 10   ],
		[50.0,   1.0, 19.3125,    6.0444,     5e-07,        -5e-07,       1.0, 1.0,      0.0,      220.0,    1.0, 1.1,      0.95,     0.6, 10   ],
		[51.0,   1.0, 55.7092,    18.5697,    5e-07,        -5e-07,       1.0, 1.0,      0.0,      220.0,    1.0, 1.1,      0.95,     0.6, 10   ],
		[52.0,   1.0, 0.0,        0.0,        0.0,          0.0,          1.0, 1.0,      0.0,      220.0,    1.0, 1.1,      0.95,     0.6, 10   ],
		[53.0,   1.0, 0.0,        0.0,        0.0,          0.0,          1.0, 1.0,      0.0,      220.0,    1.0, 1.1,      0.95,     0.6, 10   ],
		[54.0,   1.0, 0.0,        0.0,        0.0,          0.0,          1.0, 1.0,      0.0,      220.0,    1.0, 1.1,      0.95,     0.6, 10   ],
		[55.0,   1.0, 0.0,        0.0,        0.0,          0.0,          1.0, 1.0,      0.0,      220.0,    1.0, 1.1,      0.95,     0.6, 10   ],
		[56.0,   1.0, 0.0,        0.0,        0.0,          0.0,          1.0, 1.0,      0.0,      220.0,    1.0, 1.1,      0.95,     0.6, 10   ],
		[57.0,   1.0, 0.0,        0.0,        0.0,          0.0,          1.0, 1.0,      0.0,      220.0,    1.0, 1.1,      0.95,     0.6, 10   ],
		[58.0,   1.0, 0.0,        0.0,        0.0,          0.0,          1.0, 1.0,      0.0,      220.0,    1.0, 1.1,      0.95,     0.6, 10   ],
		[59.0,   1.0, 92.8487,    5.8123,     0.0,          0.0,          1.0, 1.0,      0.0,      220.0,    1.0, 1.1,      0.95,     0.6, 10   ],
		[107.0,  2.0, 0.0,        0.0,        0.0,          0.0,          1.0, 1.0,      0.0,      35.0,     1.0, 1.1,      0.95,     0.6, 10   ],
		[108.0,  2.0, 0.0,        0.0,        0.0,          0.0,          1.0, 1.0,      0.0,      35.0,     1.0, 1.1,      0.95,     0.6, 10   ],
		[109.0,  1.0, 0.0,        0.0,        0.0,          0.0,          1.0, 1.0,      0.0,      500.0,    1.0, 1.1,      0.95,     0.6, 10   ],
		[110.0,  2.0, 0.0,        0.0,        0.0,          0.0,          1.0, 1.0,      0.0,      35.0,     1.0, 1.1,      0.95,     0.6, 10   ],
		[111.0,  2.0, 0.0,        0.0,        0.0,          0.0,          1.0, 1.0,      0.0,      35.0,     1.0, 1.1,      0.95,     0.6, 10   ],
		[112.0,  1.0, 0.0,        0.0,        0.0,          0.0,          1.0, 1.0,      0.0,      500.0,    1.0, 1.1,      0.95,     0.6, 10   ],
		[113.0,  1.0, 0.0,        0.0,        0.0,          0.0,          1.0, 1.0,      0.0,      500.0,    1.0, 1.1,      0.95,     0.6, 10   ],
		[114.0,  1.0, 0.0,        0.0,        0.0,          0.0,          1.0, 1.0,      0.0,      500.0,    1.0, 1.1,      0.95,     0.6, 10   ],
		[115.0,  1.0, 0.0,        0.0,        0.0,          0.0,          1.0, 1.0,      0.0,      500.0,    1.0, 1.1,      0.95,     0.6, 10   ],
		[116.0,  2.0, 0.0,        0.0,        0.0,          0.0,          1.0, 1.0,      0.0,      66.0,     1.0, 1.1,      0.95,     0.6, 10   ],
		[117.0,  2.0, 0.0,        0.0,        0.0,          0.0,          1.0, 1.0,      0.0,      35.0,     1.0, 1.1,      0.95,     0.6, 10   ],
		[118.0,  2.0, 0.0,        0.0,        0.0,          0.0,          1.0, 1.0,      0.0,      35.0,     1.0, 1.1,      0.95,     0.6, 10   ],
		[119.0,  1.0, 111.4184,   55.7092,    0.0,          0.0,          1.0, 1.0,      0.0,      220.0,    1.0, 1.1,      0.95,     0.6, 10   ],
		[120.0,  1.0, 0.0,        0.0,        0.0,          0.0,          1.0, 1.0,      0.0,      500.0,    1.0, 1.1,      0.95,     0.6, 10   ],
		[121.0,  1.0, 0.0,        0.0,        0.0,          0.0,          1.0, 1.0,      0.0,      500.0,    1.0, 1.1,      0.95,     0.6, 10   ],
		[122.0,  1.0, 0.0,        0.0,        0.0,          0.0,          1.0, 1.0,      0.0,      500.0,    1.0, 1.1,      0.95,     0.6, 10   ],
		[123.0,  1.0, 0.0,        0.0,        0.0,          0.0,          1.0, 1.0,      0.0,      500.0,    1.0, 1.1,      0.95,     0.6, 10   ],
		[307.0,  1.0, 0.0,        0.0,        0.0,          -1.36054422,  1.0, 1.0,      0.0,      500.0,    1.0, 1.1,      0.95,     0.6, 10   ],
		[310.0,  1.0, 0.0,        0.0,        0.0,          -1.36054422,  2.0, 1.0,      0.0,      500.0,    2.0, 1.1,      0.95,     0.6, 10   ],
		[315.0,  1.0, 0.0,        0.0,        0.0,          -1.36054422,  1.0, 1.0,      0.0,      500.0,    1.0, 1.1,      0.95,     0.6, 10   ],
		[316.0,  1.0, 0.0,        0.0,        0.0,          -1.36054422,  2.0, 1.0,      0.0,      500.0,    2.0, 1.1,      0.95,     0.6, 10   ],
		[482.0,  1.0, 0.0,        0.0,        0.0,          -0.99173882,  2.0, 1.0,      0.0,      500.0,    2.0, 1.1,      0.95,     0.6, 10   ],
		[483.0,  1.0, 0.0,        0.0,        0.0,          -0.99173882,  1.0, 1.0,      0.0,      500.0,    1.0, 1.1,      0.95,     0.6, 10   ],
		[484.0,  1.0, 0.0,        0.0,        0.0,          -0.99173882,  2.0, 1.0,      0.0,      500.0,    2.0, 1.1,      0.95,     0.6, 10   ],
		[499.0,  1.0, 0.0,        0.0,        0.0,          0.0,          2.0, 1.0,      0.0,      500.0,    2.0, 1.1,      0.95,     0.6, 10   ],
		[500.0,  1.0, 0.0,        0.0,        0.0,          0.0,          2.0, 1.0,      0.0,      500.0,    2.0, 1.1,      0.95,     0.6, 10   ],
		[508.0,  1.0, 0.0,        0.0,        0.0,          0.0,          2.0, 1.0,      0.0,      500.0,    2.0, 1.1,      0.95,     0.6, 10   ],
		[539.0,  1.0, 0.0,        0.0,        0.0,          -1.36054422,  2.0, 1.0,      0.0,      500.0,    2.0, 1.1,      0.95,     0.6, 10   ],
		[540.0,  1.0, 0.0,        0.0,        0.0,          -1.36054422,  2.0, 1.0,      0.0,      500.0,    2.0, 1.1,      0.95,     0.6, 10   ],
		[541.0,  1.0, 0.0,        0.0,        0.0,          -1.36054422,  2.0, 1.0,      0.0,      500.0,    2.0, 1.1,      0.95,     0.6, 10   ],
		[542.0,  1.0, 0.0,        0.0,        0.0,          -1.36054422,  2.0, 1.0,      0.0,      500.0,    2.0, 1.1,      0.95,     0.6, 10   ],
		[552.0,  1.0, 0.0,        0.0,        0.0,          0.0,          1.0, 1.0,      0.0,      500.0,    1.0, 1.1,      0.95,     0.6, 10   ],
		[553.0,  1.0, 0.0,        0.0,        0.0,          0.0,          1.0, 1.0,      0.0,      500.0,    1.0, 1.1,      0.95,     0.6, 10   ],
		[556.0,  1.0, 0.0,        0.0,        0.0,          0.0,          1.0, 1.0,      0.0,      500.0,    1.0, 1.1,      0.95,     0.6, 10   ],
		[557.0,  1.0, 0.0,        0.0,        0.0,          0.0,          1.0, 1.0,      0.0,      500.0,    1.0, 1.1,      0.95,     0.6, 10   ],
		[1418.0, 1.0, 129.9881,   37.1395,    5e-07,        -5e-07,       2.0, 1.0,      0.0,      220.0,    2.0, 1.1,      0.95,     0.6, 10   ],
		[1454.0, 1.0, 64.0656,    17.6413,    5e-07,        -5e-07,       2.0, 1.0,      0.0,      220.0,    2.0, 1.1,      0.95,     0.6, 10   ],
		[1473.0, 1.0, 151.3433,   27.8546,    5e-07,        -5e-07,       2.0, 1.0,      0.0,      220.0,    2.0, 1.1,      0.95,     0.6, 10   ],
		[1545.0, 1.0, 60.3516,    13.9273,    5e-07,        -5e-07,       2.0, 1.0,      0.0,      220.0,    2.0, 1.1,      0.95,     0.6, 10   ],
		[1555.0, 1.0, 0.0,        0.0,        0.0,          0.0,          1.0, 1.0,      0.0,      500.0,    1.0, 1.1,      0.95,     0.6, 10   ],
		[1556.0, 1.0, 0.0,        0.0,        0.0,          0.0,          1.0, 1.0,      0.0,      500.0,    1.0, 1.1,      0.95,     0.6, 10   ],
		[1557.0, 1.0, 0.0,        0.0,        0.0,          0.0,          1.0, 1.0,      0.0,      500.0,    1.0, 1.1,      0.95,     0.6, 10   ],
		[1558.0, 1.0, 0.0,        0.0,        0.0,          0.0,          1.0, 1.0,      0.0,      500.0,    1.0, 1.1,      0.95,     0.6, 10   ],
		[1559.0, 1.0, 0.0,        0.0,        0.0,          0.0,          1.0, 1.0,      0.0,      500.0,    1.0, 1.1,      0.95,     0.6, 10   ],
		[1560.0, 1.0, 0.0,        0.0,        0.0,          0.0,          1.0, 1.0,      0.0,      500.0,    1.0, 1.1,      0.95,     0.6, 10   ],
		[1561.0, 1.0, 0.0,        0.0,        0.0,          0.0,          1.0, 1.0,      0.0,      500.0,    1.0, 1.1,      0.95,     0.6, 10   ],
		[1562.0, 1.0, 0.0,        0.0,        0.0,          0.0,          1.0, 1.0,      0.0,      500.0,    1.0, 1.1,      0.95,     0.6, 10   ],
		[1563.0, 1.0, 0.0,        0.0,        0.0,          0.0,          1.0, 1.0,      0.0,      500.0,    1.0, 1.1,      0.95,     0.6, 10   ],
		[1564.0, 1.0, 0.0,        0.0,        0.0,          0.0,          1.0, 1.0,      0.0,      500.0,    1.0, 1.1,      0.95,     0.6, 10   ],
		[1565.0, 1.0, 0.0,        0.0,        0.0,          0.0,          1.0, 1.0,      0.0,      66.0,     1.0, 1.1,      0.95,     0.6, 10   ],
		[1566.0, 1.0, 0.0,        0.0,        0.0,          0.0,          1.0, 1.0,      0.0,      500.0,    1.0, 1.1,      0.95,     0.6, 10   ],
		[1567.0, 1.0, 0.0,        0.0,        0.0,          0.0,          1.0, 1.0,      0.0,      66.0,     1.0, 1.1,      0.95,     0.6, 10   ],
		[1568.0, 1.0, 0.0,        0.0,        0.0,          0.0,          1.0, 1.0,      0.0,      500.0,    1.0, 1.1,      0.95,     0.6, 10   ],
		[1569.0, 1.0, 0.0,        0.0,        0.0,          -0.5999988,   1.0, 1.0,      0.0,      66.0,     1.0, 1.1,      0.95,     0.6, 10   ],
		[1570.0, 1.0, 0.0,        0.0,        0.0,          0.0,          1.0, 1.0,      0.0,      500.0,    1.0, 1.1,      0.95,     0.6, 10   ],
		[1571.0, 1.0, 0.0,        0.0,        0.0,          0.0,          1.0, 1.0,      0.0,      500.0,    1.0, 1.1,      0.95,     0.6, 10   ],
		[1572.0, 1.0, 0.0,        0.0,        0.0,          0.0,          1.0, 1.0,      0.0,      500.0,    1.0, 1.1,      0.95,     0.6, 10   ],
		[1573.0, 1.0, 0.0,        0.0,        0.0,          0.0,          1.0, 1.0,      0.0,      1.0,      1.0, 1.1,      0.95,     0.6, 10   ],
		[1574.0, 1.0, 0.0,        0.0,        0.0,          0.0,          1.0, 1.0,      0.0,      500.0,    1.0, 1.1,      0.95,     0.6, 10   ],
		[1575.0, 1.0, 0.0,        0.0,        0.0,          0.0,          1.0, 1.0,      0.0,      500.0,    1.0, 1.1,      0.95,     0.6, 10   ],
		[1576.0, 1.0, 0.0,        0.0,        0.0,          0.0,          1.0, 1.0,      0.0,      500.0,    1.0, 1.1,      0.95,     0.6, 10   ],
		[1577.0, 1.0, 0.0,        0.0,        0.0,          0.0,          1.0, 1.0,      0.0,      500.0,    1.0, 1.1,      0.95,     0.6, 10   ],
		[1578.0, 1.0, 0.0,        0.0,        0.0,          0.0,          1.0, 1.0,      0.0,      1.0,      1.0, 1.1,      0.95,     0.6, 10   ],
		[1579.0, 1.0, 0.0,        0.0,        0.0,          0.0,          1.0, 1.0,      0.0,      1.0,      1.0, 1.1,      0.95,     0.6, 10   ],
		[1580.0, 1.0, 0.0,        0.0,        0.0,          -0.5999988,   1.0, 1.0,      0.0,      66.0,     1.0, 1.1,      0.95,     0.6, 10   ],
		[1581.0, 1.0, 0.0,        0.0,        0.0,          0.0,          1.0, 1.0,      0.0,      1.0,      1.0, 1.1,      0.95,     0.6, 10   ],
		[1582.0, 1.0, 0.0,        0.0,        0.0,          0.0,          1.0, 1.0,      0.0,      500.0,    1.0, 1.1,      0.95,     0.6, 10   ],
		[1583.0, 1.0, 0.0,        0.0,        0.0,          0.0,          1.0, 1.0,      0.0,      1.0,      1.0, 1.1,      0.95,     0.6, 10   ],
		[1584.0, 1.0, 0.0,        0.0,        0.0,          0.0,          1.0, 1.0,      0.0,      500.0,    1.0, 1.1,      0.95,     0.6, 10   ],
		[1585.0, 1.0, 0.0,        0.0,        0.0,          0.0,          1.0, 1.0,      0.0,      500.0,    1.0, 1.1,      0.95,     0.6, 10   ],
		[1586.0, 1.0, 0.0,        0.0,        0.0,          0.0,          1.0, 1.0,      0.0,      500.0,    1.0, 1.1,      0.95,     0.6, 10   ],
		[1587.0, 1.0, 0.0,        0.0,        0.0,          0.0,          1.0, 1.0,      0.0,      500.0,    1.0, 1.1,      0.95,     0.6, 10   ],
		[1588.0, 1.0, 0.0,        0.0,        0.0,          0.0,          1.0, 1.0,      0.0,      500.0,    1.0, 1.1,      0.95,     0.6, 10   ],
		[1589.0, 1.0, 0.0,        0.0,        0.0,          0.0,          1.0, 1.0,      0.0,      500.0,    1.0, 1.1,      0.95,     0.6, 10   ],
		[1590.0, 1.0, 0.0,        0.0,        0.0,          0.0,          1.0, 1.0,      0.0,      500.0,    1.0, 1.1,      0.95,     0.6, 10   ],
		[1591.0, 1.0, 0.0,        0.0,        0.0,          0.0,          1.0, 1.0,      0.0,      500.0,    1.0, 1.1,      0.95,     0.6, 10   ],
		[1592.0, 1.0, 0.0,        0.0,        0.0,          0.0,          1.0, 1.0,      0.0,      500.0,    1.0, 1.1,      0.95,     0.6, 10   ],
		[1593.0, 1.0, 0.0,        0.0,        0.0,          0.0,          1.0, 1.0,      0.0,      500.0,    1.0, 1.1,      0.95,     0.6, 10   ],
		[1594.0, 1.0, 0.0,        0.0,        0.0,          0.0,          1.0, 1.0,      0.0,      500.0,    1.0, 1.1,      0.95,     0.6, 10   ],
		[1595.0, 1.0, 0.0,        0.0,        0.0,          0.0,          1.0, 1.0,      0.0,      500.0,    1.0, 1.1,      0.95,     0.6, 10   ],
		[1596.0, 1.0, 0.0,        0.0,        0.0,          0.0,          1.0, 1.0,      0.0,      1.0,      1.0, 1.1,      0.95,     0.6, 10   ],
		[1597.0, 2.0, 0.0,        0.0,        0.0,          0.0,          1.0, 1.0,      0.0,      10.0,     1.0, 1.1,      0.95,     0.6, 10   ],
		[1598.0, 1.0, 0.0,        0.0,        0.0,          0.0,          1.0, 1.0,      0.0,      1.0,      1.0, 1.1,      0.95,     0.6, 10   ],
		[1599.0, 2.0, 0.0,        0.0,        0.0,          0.0,          1.0, 1.0,      0.0,      10.0,     1.0, 1.1,      0.95,     0.6, 10   ],
		[1600.0, 1.0, 0.0,        0.0,        0.0,          0.0,          1.0, 1.0,      0.0,      66.0,     1.0, 1.1,      0.95,     0.6, 10   ],
		[1601.0, 1.0, 0.0,        0.0,        0.0,          0.0,          1.0, 1.0,      0.0,      1.0,      1.0, 1.1,      0.95,     0.6, 10   ],
		[1602.0, 1.0, 0.0,        0.0,        0.0,          0.0,          1.0, 1.0,      0.0,      66.0,     1.0, 1.1,      0.95,     0.6, 10   ],
		[1603.0, 1.0, 0.0,        0.0,        0.0,          0.0,          1.0, 1.0,      0.0,      500.0,    1.0, 1.1,      0.95,     0.6, 10   ],
		[1604.0, 1.0, 0.0,        0.0,        0.0,          0.0,          1.0, 1.0,      0.0,      500.0,    1.0, 1.1,      0.95,     0.6, 10   ],
		[1605.0, 1.0, 0.0,        0.0,        0.0,          0.0,          1.0, 1.0,      0.0,      500.0,    1.0, 1.1,      0.95,     0.6, 10   ],
		[1606.0, 1.0, 0.0,        0.0,        0.0,          0.0,          1.0, 1.0,      0.0,      500.0,    1.0, 1.1,      0.95,     0.6, 10   ],
		[1607.0, 1.0, 0.0,        0.0,        0.0,          0.0,          1.0, 1.0,      0.0,      500.0,    1.0, 1.1,      0.95,     0.6, 10   ],
		[1608.0, 1.0, 0.0,        0.0,        0.0,          0.0,          1.0, 1.0,      0.0,      220.0,    1.0, 1.1,      0.95,     0.6, 10   ],
		[1609.0, 2.0, 0.0,        0.0,        0.0,          0.0,          1.0, 1.0,      0.0,      13.8,     1.0, 1.1,      0.95,     0.6, 10   ],
		[1610.0, 1.0, 0.0,        0.0,        0.0,          0.0,          1.0, 1.0,      0.0,      66.0,     1.0, 1.1,      0.95,     0.6, 10   ],
		[1611.0, 1.0, 0.0,        0.0,        0.0,          0.0,          1.0, 1.0,      0.0,      220.0,    1.0, 1.1,      0.95,     0.6, 10   ],
		[1612.0, 2.0, 0.0,        0.0,        0.0,          0.0,          1.0, 1.0,      0.0,      13.8,     1.0, 1.1,      0.95,     0.6, 10   ],
		[1613.0, 1.0, 0.0,        0.0,        0.0,          0.0,          1.0, 1.0,      0.0,      66.0,     1.0, 1.1,      0.95,     0.6, 10   ],
		[1614.0, 1.0, 0.0,        0.0,        0.0,          0.0,          1.0, 1.0,      0.0,      500.0,    1.0, 1.1,      0.95,     0.6, 10   ],
		[1615.0, 1.0, 0.0,        0.0,        0.0,          0.0,          1.0, 1.0,      0.0,      500.0,    1.0, 1.1,      0.95,     0.6, 10   ],
		[1616.0, 1.0, 0.0,        0.0,        0.0,          0.0,          1.0, 1.0,      0.0,      500.0,    1.0, 1.1,      0.95,     0.6, 10   ],
		[1617.0, 1.0, 0.0,        0.0,        0.0,          0.0,          1.0, 1.0,      0.0,      500.0,    1.0, 1.1,      0.95,     0.6, 10   ],
		[1618.0, 1.0, 0.0,        0.0,        0.0,          0.0,          1.0, 1.0,      0.0,      500.0,    1.0, 1.1,      0.95,     0.6, 10   ],
		[1619.0, 1.0, 0.0,        0.0,        0.0,          0.0,          1.0, 1.0,      0.0,      1.0,      1.0, 1.1,      0.95,     0.6, 10   ],
		[1620.0, 1.0, 0.0,        0.0,        0.0,          0.0,          1.0, 1.0,      0.0,      10.0,     1.0, 1.1,      0.95,     0.6, 10   ],
		[1621.0, 1.0, 0.0,        0.0,        0.0,          0.0,          1.0, 1.0,      0.0,      10.0,     1.0, 1.1,      0.95,     0.6, 10   ],
		[1622.0, 1.0, 0.0,        0.0,        0.0,          0.0,          1.0, 1.0,      0.0,      1.0,      1.0, 1.1,      0.95,     0.6, 10   ],
		[1623.0, 1.0, 0.0,        0.0,        0.0,          0.0,          1.0, 1.0,      0.0,      66.0,     1.0, 1.1,      0.95,     0.6, 10   ],
		[1624.0, 1.0, 0.0,        0.0,        0.0,          0.0,          1.0, 1.0,      0.0,      1.0,      1.0, 1.1,      0.95,     0.6, 10   ],
		[1625.0, 1.0, 0.0,        0.0,        0.0,          0.0,          1.0, 1.0,      0.0,      66.0,     1.0, 1.1,      0.95,     0.6, 10   ],
		[1626.0, 1.0, 0.0,        0.0,        0.0,          0.0,          1.0, 1.0,      0.0,      500.0,    1.0, 1.1,      0.95,     0.6, 10   ],
		[1627.0, 1.0, 0.0,        0.0,        0.0,          0.0,          1.0, 1.0,      0.0,      500.0,    1.0, 1.1,      0.95,     0.6, 10   ],
		[1628.0, 1.0, 0.0,        0.0,        0.0,          0.0,          1.0, 1.0,      0.0,      1.0,      1.0, 1.1,      0.95,     0.6, 10   ],
		[1629.0, 2.0, 0.0,        0.0,        0.0,          0.0,          1.0, 1.0,      0.0,      13.8,     1.0, 1.1,      0.95,     0.6, 10   ],
		[1630.0, 1.0, 0.0,        0.0,        0.0,          0.0,          1.0, 1.0,      0.0,      66.0,     1.0, 1.1,      0.95,     0.6, 10   ],
		[1631.0, 1.0, 0.0,        0.0,        0.0,          0.0,          1.0, 1.0,      0.0,      1.0,      1.0, 1.1,      0.95,     0.6, 10   ],
		[1632.0, 2.0, 6.4994,     3.3797,     0.0,          0.0,          1.0, 1.0,      0.0,      13.8,     1.0, 1.1,      0.95,     0.6, 10   ],
		[1633.0, 1.0, 0.0,        0.0,        0.0,          0.0,          1.0, 1.0,      0.0,      1.0,      1.0, 1.1,      0.95,     0.6, 10   ],
		[1634.0, 2.0, 6.4994,     3.3797,     0.0,          0.0,          1.0, 1.0,      0.0,      13.8,     1.0, 1.1,      0.95,     0.6, 10   ],
		[1635.0, 1.0, 278.546,    33.2491,    0.0,          0.0,          1.0, 1.0,      0.0,      66.0,     1.0, 1.1,      0.95,     0.6, 10   ],
		[1641.0, 1.0, 0.0,        0.0,        0.0,          0.0,          1.0, 1.0,      0.0,      35.0,     1.0, 1.1,      0.95,     0.6, 10   ],
		[1642.0, 1.0, 0.0,        0.0,        0.0,          0.0,          1.0, 1.0,      0.0,      35.0,     1.0, 1.1,      0.95,     0.6, 10   ],
		[1643.0, 2.0, 0.0,        0.0,        0.0,          0.0,          1.0, 1.0,      0.0,      35.0,     1.0, 1.1,      0.95,     0.6, 10   ],
		[1644.0, 1.0, 0.0,        0.0,        0.0,          0.0,          1.0, 1.0,      0.0,      35.0,     1.0, 1.1,      0.95,     0.6, 10   ],
		[1645.0, 2.0, 4.6424,     2.7854,     0.0,          0.0,          1.0, 1.0,      0.0,      6.3,      1.0, 1.1,      0.95,     0.6, 10   ],
		[1646.0, 2.0, 0.0,        0.0,        0.0,          0.0,          1.0, 1.0,      0.0,      66.0,     1.0, 1.1,      0.95,     0.6, 10   ],
		[1647.0, 2.0, 0.0,        0.0,        0.0,          0.0,          1.0, 1.0,      0.0,      66.0,     1.0, 1.1,      0.95,     0.6, 10   ],
		[1648.0, 2.0, 6.4994,     2.7855,     0.0,          0.0,          1.0, 1.0,      0.0,      24.0,     1.0, 1.1,      0.95,     0.6, 10   ],
		[1649.0, 2.0, 3.2497,     2.7855,     0.0,          0.0,          1.0, 1.0,      0.0,      20.0,     1.0, 1.1,      0.95,     0.6, 10   ],
		[1650.0, 2.0, 6.4994,     2.7855,     0.0,          0.0,          1.0, 1.0,      0.0,      24.0,     1.0, 1.1,      0.95,     0.6, 10   ],
		[1651.0, 2.0, 0.0,        0.0,        0.0,          0.0,          1.0, 1.0,      0.0,      15.7,     1.0, 1.1,      0.95,     0.6, 10   ],
		[1652.0, 2.0, 0.0,        0.0,        0.0,          0.0,          1.0, 1.0,      0.0,      35.0,     1.0, 1.1,      0.95,     0.6, 10   ],
		[1653.0, 2.0, 0.0,        0.0,        0.0,          0.0,          1.0, 1.0,      0.0,      15.7,     1.0, 1.1,      0.95,     0.6, 10   ],
		[1654.0, 2.0, 0.0,        0.0,        0.0,          0.0,          1.0, 1.0,      0.0,      15.7,     1.0, 1.1,      0.95,     0.6, 10   ],
		[1655.0, 2.0, 0.0,        0.0,        0.0,          0.0,          1.0, 1.0,      0.0,      35.0,     1.0, 1.1,      0.95,     0.6, 10   ],
		[1656.0, 2.0, 0.0,        0.0,        0.0,          0.0,          1.0, 1.0,      0.0,      35.0,     1.0, 1.1,      0.95,     0.6, 10   ],
		[1657.0, 2.0, 0.0,        0.0,        0.0,          0.0,          1.0, 1.0,      0.0,      35.0,     1.0, 1.1,      0.95,     0.6, 10   ],
		[1658.0, 2.0, 0.0,        0.0,        0.0,          0.0,          1.0, 1.0,      0.0,      35.0,     1.0, 1.1,      0.95,     0.6, 10   ],
		[1659.0, 2.0, 0.0,        0.0,        0.0,          0.0,          1.0, 1.0,      0.0,      35.0,     1.0, 1.1,      0.95,     0.6, 10   ],
		[1660.0, 2.0, 0.0,        0.0,        0.0,          0.0,          1.0, 1.0,      0.0,      35.0,     1.0, 1.1,      0.95,     0.6, 10   ],
		[1661.0, 2.0, 0.0,        0.0,        0.0,          0.0,          1.0, 1.0,      0.0,      35.0,     1.0, 1.1,      0.95,     0.6, 10   ],
...
	])
	ppc["gen"] = array([
		[1634.0, 40.0,     44.7,     68.2,     0.0,      1.07,     100.0,  1.0, 110.0,    0.0,      0, 0, 0, 0, 0, 0, 0, 0, 0, 0, 0, 0.0, 0.95,   129.41,   22.0,     33.0,     33.0,     44.0      ],
		[1632.0, 60.0,     43.6,     68.2,     0.0,      1.07,     100.0,  0.0, 110.0,    0.0,      0, 0, 0, 0, 0, 0, 0, 0, 0, 0, 0, 0.0, 0.95,   129.41,   22.0,     33.0,     33.0,     44.0      ],
		[1629.0, 90.0,     40.8,     77.46,    0.0,      1.07,     100.0,  1.0, 125.0,    0.0,      0, 0, 0, 0, 0, 0, 0, 0, 0, 0, 0, 0.0, 0.95,   147.06,   25.0,     37.5,     37.5,     50.0      ],
		[1685.0, 154.8,    75.3,     80.0,     0.0,      1.07,     100.0,  1.0, 157.0,    0.0,      0, 0, 0, 0, 0, 0, 0, 0, 0, 0, 0, 0.0, 0.95,   177.177,  31.4,     47.1,     47.1,     62.8      ],
		[1706.0, 282.3,    96.3,     185.9,    0.0,      1.07,     100.0,  1.0, 300.0,    0.0,      0, 0, 0, 0, 0, 0, 0, 0, 0, 0, 0, 0.0, 0.95,   352.0,    60.0,     90.0,     90.0,     120.0     ],
		[1747.0, 79.0,     23.2,     41.5,     0.0,      1.0,      100.0,  0.0, 75.0,     0.0,      0, 0, 0, 0, 0, 0, 0, 0, 0, 0, 0, 0.0, 0.95,   88.8888,  15.0,     22.5,     22.5,     30.0      ],
		[1746.0, 77.8,     18.4,     41.5,     0.0,      1.0,      100.0,  0.0, 75.0,     0.0,      0, 0, 0, 0, 0, 0, 0, 0, 0, 0, 0, 0.0, 0.95,   88.8888,  15.0,     22.5,     22.5,     30.0      ],
		[31.0,   100.0,    12.6,     62.0,     0.0,      1.0,      100.0,  1.0, 100.0,    0.0,      0, 0, 0, 0, 0, 0, 0, 0, 0, 0, 0, 0.0, 0.95,   117.65,   20.0,     30.0,     30.0,     40.0      ],
		[30.0,   100.0,    12.6,     62.0,     0.0,      1.0,      100.0,  0.0, 100.0,    0.0,      0, 0, 0, 0, 0, 0, 0, 0, 0, 0, 0, 0.0, 0.95,   117.65,   20.0,     30.0,     30.0,     40.0      ],
		[23.0,   49.5,     19.0,     62.0,     0.0,      1.0,      100.0,  0.0, 9.579,    0.0,      0, 0, 0, 0, 0, 0, 0, 0, 0, 0, 0, 1.0, 0.95,   117.65,   19.8,     29.7,     29.7,     39.6      ],
		[4.0,    7.1,      1.8,      62.0,     0.0,      1.0,      100.0,  0.0, 16.8061,  0.0,      0, 0, 0, 0, 0, 0, 0, 0, 0, 0, 0, 1.0, 0.95,   117.65,   19.8,     29.7,     29.7,     39.6      ],
		[1666.0, 193.0,    107.7,    185.9,    0.0,      1.0,      100.0,  1.0, 367.0,    0.0,      0, 0, 0, 0, 0, 0, 0, 0, 0, 0, 0, 0.0, 0.95,   411.7,    70.0,     105.0,    105.0,    140.0     ],
		[1665.0, 264.8,    115.6,    185.9,    0.0,      1.0,      100.0,  1.0, 367.0,    0.0,      0, 0, 0, 0, 0, 0, 0, 0, 0, 0, 0, 0.0, 0.95,   411.7,    70.0,     105.0,    105.0,    140.0     ],
		[1745.0, 234.1,    26.6,     216.9,    0.0,      1.0,      100.0,  1.0, 350.0,    0.0,      0, 0, 0, 0, 0, 0, 0, 0, 0, 0, 0, 0.0, 0.95,   411.76,   70.0,     105.0,    105.0,    140.0     ],
		[1744.0, 231.6,    46.9,     216.9,    0.0,      1.02,     100.0,  1.0, 350.0,    0.0,      0, 0, 0, 0, 0, 0, 0, 0, 0, 0, 0, 0.0, 0.95,   411.76,   70.0,     105.0,    105.0,    140.0     ],
		[1743.0, 258.5,    46.6,     216.9,    0.0,      1.0,      100.0,  1.0, 350.0,    0.0,      0, 0, 0, 0, 0, 0, 0, 0, 0, 0, 0, 0.0, 0.95,   411.76,   70.0,     105.0,    105.0,    140.0     ],
		[1742.0, 263.3,    101.2,    216.9,    0.0,      1.02,     100.0,  1.0, 350.0,    0.0,      0, 0, 0, 0, 0, 0, 0, 0, 0, 0, 0, 0.0, 0.95,   411.76,   70.0,     105.0,    105.0,    140.0     ],
		[1664.0, 350.0,    34.0,     216.9,    0.0,      1.015,    100.0,  0.0, 350.0,    0.0,      0, 0, 0, 0, 0, 0, 0, 0, 0, 0, 0, 0.0, 0.95,   411.76,   70.0,     105.0,    105.0,    140.0     ],
		[26.0,   49.5,     19.0,     62.0,     0.0,      1.0,      100.0,  0.0, 14.9259,  0.0,      0, 0, 0, 0, 0, 0, 0, 0, 0, 0, 0, 1.0, 0.95,   117.65,   19.8,     29.7,     29.7,     39.6      ],
		[28.0,   49.5,     19.0,     62.0,     0.0,      1.0,      100.0,  0.0, 14.0603,  0.0,      0, 0, 0, 0, 0, 0, 0, 0, 0, 0, 0, 1.0, 0.95,   117.65,   19.8,     29.7,     29.7,     39.6      ],
		[19.0,   49.5,     19.0,     62.0,     0.0,      1.0,      100.0,  0.0, 17.0235,  0.0,      0, 0, 0, 0, 0, 0, 0, 0, 0, 0, 0, 1.0, 0.95,   117.65,   19.8,     29.7,     29.7,     39.6      ],
		[1741.0, 283.9,    41.3,     216.9,    0.0,      1.0,      100.0,  1.0, 350.0,    0.0,      0, 0, 0, 0, 0, 0, 0, 0, 0, 0, 0, 0.0, 0.95,   411.76,   70.0,     105.0,    105.0,    140.0     ],
		[1740.0, 262.8,    32.8,     216.9,    0.0,      1.03,     100.0,  1.0, 350.0,    0.0,      0, 0, 0, 0, 0, 0, 0, 0, 0, 0, 0, 0.0, 0.95,   411.76,   70.0,     105.0,    105.0,    140.0     ],
		[1670.0, 219.8,    92.0,     185.9,    0.0,      1.0,      100.0,  1.0, 300.0,    0.0,      0, 0, 0, 0, 0, 0, 0, 0, 0, 0, 0, 0.0, 0.95,   352.94,   60.0,     90.0,     90.0,     120.0     ],
		[1669.0, 299.8,    103.9,    185.9,    0.0,      1.0,      100.0,  1.0, 300.0,    0.0,      0, 0, 0, 0, 0, 0, 0, 0, 0, 0, 0, 0.0, 0.95,   352.94,   60.0,     90.0,     90.0,     120.0     ],
		[1687.0, 297.4,    102.2,    185.9,    0.0,      1.01,     100.0,  1.0, 300.0,    0.0,      0, 0, 0, 0, 0, 0, 0, 0, 0, 0, 0, 0.0, 0.95,   352.94,   60.0,     90.0,     90.0,     120.0     ],
		[1686.0, 297.7,    86.4,     185.9,    0.0,      1.0,      100.0,  1.0, 300.0,    0.0,      0, 0, 0, 0, 0, 0, 0, 0, 0, 0, 0, 0.0, 0.95,   352.94,   60.0,     90.0,     90.0,     120.0     ],
		[1729.0, 266.4,    133.3,    216.9,    0.0,      1.0,      100.0,  1.0, 350.0,    0.0,      0, 0, 0, 0, 0, 0, 0, 0, 0, 0, 0, 0.0, 0.95,   411.76,   70.0,     105.0,    105.0,    140.0     ],
		[1728.0, 225.0,    140.2,    216.9,    0.0,      1.0,      100.0,  1.0, 350.0,    0.0,      0, 0, 0, 0, 0, 0, 0, 0, 0, 0, 0, 0.0, 0.95,   411.76,   70.0,     105.0,    105.0,    140.0     ],
		[1696.0, 209.0,    112.0,    185.9,    0.0,      1.0,      100.0,  1.0, 300.0,    0.0,      0, 0, 0, 0, 0, 0, 0, 0, 0, 0, 0, 0.0, 0.95,   352.94,   60.0,     90.0,     90.0,     120.0     ],
		[1695.0, 209.0,    89.0,     185.9,    0.0,      1.0,      100.0,  1.0, 300.0,    0.0,      0, 0, 0, 0, 0, 0, 0, 0, 0, 0, 0, 0.0, 0.95,   352.94,   60.0,     90.0,     90.0,     120.0     ],
		[1690.0, 133.1,    0.0,      88.0,     0.0,      1.0,      100.0,  1.0, 21.209,   0.0,      0, 0, 0, 0, 0, 0, 0, 0, 0, 0, 0, 1.0, 0.95,   117.65,   19.8,     29.7,     29.7,     39.6      ],
		[1659.0, 22.2,     -0.9,     62.0,     0.0,      1.0,      100.0,  1.0, 17.6026,  0.0,      0, 0, 0, 0, 0, 0, 0, 0, 0, 0, 0, 1.0, 0.95,   117.65,   19.8,     29.7,     29.7,     39.6      ],
		[1738.0, 134.2,    51.3,     50.0,     0.0,      1.0,      100.0,  1.0, 200.0,    0.0,      0, 0, 0, 0, 0, 0, 0, 0, 0, 0, 0, 0.0, 0.95,   235.29,   40.0,     60.0,     60.0,     80.0      ],
		[1737.0, 155.4,    40.6,     50.0,     0.0,      1.0,      100.0,  1.0, 200.0,    0.0,      0, 0, 0, 0, 0, 0, 0, 0, 0, 0, 0, 0.0, 0.95,   235.29,   40.0,     60.0,     60.0,     80.0      ],
		[1707.0, 264.3,    28.2,     216.9,    0.0,      1.0,      100.0,  1.0, 350.0,    0.0,      0, 0, 0, 0, 0, 0, 0, 0, 0, 0, 0, 0.0, 0.95,   411.76,   70.0,     105.0,    105.0,    140.0     ],
		[1752.0, 254.3,    31.4,     216.9,    0.0,      1.0,      100.0,  1.0, 350.0,    0.0,      0, 0, 0, 0, 0, 0, 0, 0, 0, 0, 0, 0.0, 0.95,   411.76,   70.0,     105.0,    105.0,    140.0     ],
		[13.0,   90.0,     19.0,     62.0,     0.0,      1.0,      100.0,  0.0, 18.1053,  0.0,      0, 0, 0, 0, 0, 0, 0, 0, 0, 0, 0, 1.0, 0.95,   117.65,   19.8,     29.7,     29.7,     39.6      ],
		[1703.0, 93.2,     0.0,      123.9,    0.0,      1.0,      100.0,  1.0, 150.0,    0.0,      0, 0, 0, 0, 0, 0, 0, 0, 0, 0, 0, 0.0, 0.95,   176.0,    30.0,     45.0,     45.0,     60.0      ],
		[1702.0, 144.4,    17.6,     123.9,    0.0,      1.0,      100.0,  0.0, 150.0,    0.0,      0, 0, 0, 0, 0, 0, 0, 0, 0, 0, 0, 0.0, 0.95,   176.0,    30.0,     45.0,     45.0,     60.0      ],
		[1704.0, 107.3,    0.0,      123.9,    0.0,      1.0,      100.0,  1.0, 150.0,    0.0,      0, 0, 0, 0, 0, 0, 0, 0, 0, 0, 0, 0.0, 0.95,   176.0,    30.0,     45.0,     45.0,     60.0      ],
		[1705.0, 107.7,    9.9,      123.9,    0.0,      1.0,      100.0,  1.0, 150.0,    0.0,      0, 0, 0, 0, 0, 0, 0, 0, 0, 0, 0, 0.0, 0.95,   176.0,    30.0,     45.0,     45.0,     60.0      ],
		[34.0,   30.0,     20.0,     35.0,     0.0,      1.003,    100.0,  1.0, 50.0,     0.0,      0, 0, 0, 0, 0, 0, 0, 0, 0, 0, 0, 0.0, 0.95,   40.0,     6.0,      9.0,      9.0,      12.0      ],
		[33.0,   30.0,     20.0,     35.0,     0.0,      1.0,      100.0,  1.0, 50.0,     0.0,      0, 0, 0, 0, 0, 0, 0, 0, 0, 0, 0, 0.0, 0.95,   40.0,     6.0,      9.0,      9.0,      12.0      ],
		[1678.0, 257.9,    99.5,     185.9,    0.0,      1.0,      100.0,  1.0, 300.0,    0.0,      0, 0, 0, 0, 0, 0, 0, 0, 0, 0, 0, 0.0, 0.95,   352.94,   60.0,     90.0,     90.0,     120.0     ],
		[1677.0, 128.6,    88.6,     185.9,    0.0,      1.0,      100.0,  1.0, 300.0,    0.0,      0, 0, 0, 0, 0, 0, 0, 0, 0, 0, 0, 0.0, 0.95,   352.94,   60.0,     90.0,     90.0,     120.0     ],
		[1655.0, 49.5,     0.0,      4.95,     -0.0,     1.0,      100.0,  0.0, 16.2947,  0.0,      0, 0, 0, 0, 0, 0, 0, 0, 0, 0, 0, 1.0, 0.95,   110.0,    19.8,     29.7,     29.7,     39.6      ],
		[27.0,   48.0,     19.0,     62.0,     0.0,      1.0,      100.0,  0.0, 8.9483,   0.0,      0, 0, 0, 0, 0, 0, 0, 0, 0, 0, 0, 1.0, 0.95,   117.65,   19.8,     29.7,     29.7,     39.6      ],
		[1657.0, 90.0,     19.0,     62.0,     0.0,      1.0,      100.0,  0.0, 17.9607,  0.0,      0, 0, 0, 0, 0, 0, 0, 0, 0, 0, 0, 1.0, 0.95,   117.65,   19.8,     29.7,     29.7,     39.6      ],
		[1650.0, 1068.2,   202.5,    600.0,    0.0,      1.0,      100.0,  1.0, 1150.0,   0.0,      0, 0, 0, 0, 0, 0, 0, 0, 0, 0, 0, 0.0, 0.95,   1278.0,   223.6,    335.4,    335.4,    447.2     ],
		[1648.0, 1000.0,   300.0,    600.0,    0.0,      1.0,      100.0,  1.0, 1150.0,   0.0,      0, 0, 0, 0, 0, 0, 0, 0, 0, 0, 0, 0.0, 0.95,   1277.778, 230.0,    345.0,    345.0,    460.0     ],
		[35.0,   1118.0,   300.0,    600.0,    0.0,      1.0,      100.0,  0.0, 1150.0,   0.0,      0, 0, 0, 0, 0, 0, 0, 0, 0, 0, 0, 0.0, 0.95,   1278.0,   223.6,    335.4,    335.4,    447.2     ],
		[1682.0, 246.6,    95.4,     185.9,    0.0,      1.0,      100.0,  1.0, 330.0,    0.0,      0, 0, 0, 0, 0, 0, 0, 0, 0, 0, 0, 0.0, 0.95,   388.0,    66.0,     99.0,     99.0,     132.0     ],
		[1681.0, 275.9,    100.9,    185.9,    0.0,      1.0,      100.0,  1.0, 330.0,    0.0,      0, 0, 0, 0, 0, 0, 0, 0, 0, 0, 0, 0.0, 0.95,   388.0,    66.0,     99.0,     99.0,     132.0     ],
		[2116.0, 58.3,     2.4,      44.9,     0.0,      1.0,      100.0,  0.0, 72.5,     0.0,      0, 0, 0, 0, 0, 0, 0, 0, 0, 0, 0, 0.0, 0.95,   85.294,   14.5,     21.75,    21.75,    29.0      ],
		[2114.0, 67.9,     2.3,      44.9,     0.0,      1.0,      100.0,  0.0, 72.5,     0.0,      0, 0, 0, 0, 0, 0, 0, 0, 0, 0, 0, 0.0, 0.95,   85.294,   14.5,     21.75,    21.75,    29.0      ],
		[2113.0, 67.0,     4.7,      44.9,     0.0,      1.0,      100.0,  0.0, 72.5,     0.0,      0, 0, 0, 0, 0, 0, 0, 0, 0, 0, 0, 0.0, 0.95,   85.294,   14.5,     21.75,    21.75,    29.0      ],
		[2112.0, 32.2,     5.0,      5.0,      0.0,      1.0,      100.0,  0.0, 36.0,     0.0,      0, 0, 0, 0, 0, 0, 0, 0, 0, 0, 0, 0.0, 0.95,   41.14,    7.2,      10.8,     10.8,     14.4      ],
		[2110.0, 32.6,     5.4,      5.0,      0.0,      1.0,      100.0,  0.0, 36.0,     0.0,      0, 0, 0, 0, 0, 0, 0, 0, 0, 0, 0, 0.0, 0.95,   41.14,    7.2,      10.8,     10.8,     14.4      ],
		[1736.0, 30.2,     5.9,      20.0,     0.0,      1.0,      100.0,  0.0, 42.0,     0.0,      0, 0, 0, 0, 0, 0, 0, 0, 0, 0, 0, 0.0, 0.95,   49.412,   8.4,      12.6,     12.6,     16.8      ],
		[1735.0, 30.8,     6.3,      20.0,     0.0,      1.0,      100.0,  0.0, 42.0,     0.0,      0, 0, 0, 0, 0, 0, 0, 0, 0, 0, 0, 0.0, 0.95,   49.412,   8.4,      12.6,     12.6,     16.8      ],
		[1734.0, 200.0,    88.0,     123.9,    0.0,      1.0,      100.0,  0.0, 200.0,    0.0,      0, 0, 0, 0, 0, 0, 0, 0, 0, 0, 0, 0.0, 0.95,   235.29,   40.0,     60.0,     60.0,     80.0      ],
		[1733.0, 200.0,    123.9,    123.9,    0.0,      1.03,     100.0,  0.0, 200.0,    0.0,      0, 0, 0, 0, 0, 0, 0, 0, 0, 0, 0, 0.0, 0.95,   235.29,   40.0,     60.0,     60.0,     80.0      ],
		[1732.0, 130.3,    19.7,     123.9,    0.0,      1.0,      100.0,  0.0, 200.0,    0.0,      0, 0, 0, 0, 0, 0, 0, 0, 0, 0, 0, 0.0, 0.95,   235.29,   40.0,     60.0,     60.0,     80.0      ],
		[1694.0, 212.5,    27.6,     185.9,    0.0,      1.0,      100.0,  1.0, 300.0,    0.0,      0, 0, 0, 0, 0, 0, 0, 0, 0, 0, 0, 0.0, 0.95,   352.94,   60.0,     90.0,     90.0,     120.0     ],
		[1693.0, 215.3,    38.5,     185.9,    0.0,      1.0,      100.0,  1.0, 300.0,    0.0,      0, 0, 0, 0, 0, 0, 0, 0, 0, 0, 0, 0.0, 0.95,   352.94,   60.0,     90.0,     90.0,     120.0     ],
		[25.0,   48.0,     19.0,     62.0,     0.0,      1.0,      100.0,  0.0, 16.1949,  0.0,      0, 0, 0, 0, 0, 0, 0, 0, 0, 0, 0, 1.0, 0.95,   117.65,   19.8,     29.7,     29.7,     39.6      ],
		[1701.0, 472.5,    159.0,    290.6,    0.0,      1.03,     100.0,  1.0, 600.0,    0.0,      0, 0, 0, 0, 0, 0, 0, 0, 0, 0, 0, 0.0, 0.95,   666.67,   120.0,    180.0,    180.0,    240.0     ],
		[1700.0, 563.6,    210.1,    290.6,    0.0,      1.03,     100.0,  0.0, 600.0,    0.0,      0, 0, 0, 0, 0, 0, 0, 0, 0, 0, 0, 0.0, 0.95,   666.67,   120.0,    180.0,    180.0,    240.0     ],
		[1652.0, 50.0,     19.0,     62.0,     0.0,      1.0,      100.0,  0.0, 17.8462,  0.0,      0, 0, 0, 0, 0, 0, 0, 0, 0, 0, 0, 1.0, 0.95,   117.65,   19.8,     29.7,     29.7,     39.6      ],
		[1645.0, 50.0,     20.0,     60.0,     0.0,      1.03,     100.0,  1.0, 50.0,     0.0,      0, 0, 0, 0, 0, 0, 0, 0, 0, 0, 0, 0.0, 0.95,   58.0,     10.0,     15.0,     15.0,     20.0      ],
		[24.0,   50.0,     20.0,     60.0,     0.0,      1.03,     100.0,  0.0, 50.0,     0.0,      0, 0, 0, 0, 0, 0, 0, 0, 0, 0, 0, 0.0, 0.95,   58.0,     10.0,     15.0,     15.0,     20.0      ],
		[1656.0, 49.5,     0.0,      4.95,     -0.0,     1.0,      100.0,  1.0, 5.1572,   0.0,      0, 0, 0, 0, 0, 0, 0, 0, 0, 0, 0, 1.0, 0.95,   110.0,    19.8,     29.7,     29.7,     39.6      ],
		[14.0,   49.5,     0.0,      4.95,     -0.0,     1.0,      100.0,  0.0, 21.9529,  0.0,      0, 0, 0, 0, 0, 0, 0, 0, 0, 0, 0, 1.0, 0.95,   110.0,    19.8,     29.7,     29.7,     39.6      ],
		[1679.0, 140.0,    9.6,      62.0,     0.0,      1.0,      100.0,  1.0, 8.7043,   0.0,      0, 0, 0, 0, 0, 0, 0, 0, 0, 0, 0, 1.0, 0.95,   117.65,   19.8,     29.7,     29.7,     39.6      ],
		[116.0,  99.0,     19.0,     62.0,     0.0,      1.0,      100.0,  0.0, 19.6567,  0.0,      0, 0, 0, 0, 0, 0, 0, 0, 0, 0, 0, 1.0, 0.95,   117.65,   19.8,     29.7,     29.7,     39.6      ],
		[18.0,   99.0,     20.0,     62.0,     0.0,      1.0,      100.0,  0.0, 6.0718,   0.0,      0, 0, 0, 0, 0, 0, 0, 0, 0, 0, 0, 1.0, 0.95,   117.65,   19.8,     29.7,     29.7,     39.6      ],
		[17.0,   99.0,     20.0,     62.0,     0.0,      1.0,      100.0,  0.0, 5.3281,   0.0,      0, 0, 0, 0, 0, 0, 0, 0, 0, 0, 0, 1.0, 0.95,   117.65,   19.8,     29.7,     29.7,     39.6      ],
		[16.0,   99.0,     20.0,     62.0,     0.0,      1.0,      100.0,  0.0, 1.6761,   0.0,      0, 0, 0, 0, 0, 0, 0, 0, 0, 0, 0, 1.0, 0.95,   117.65,   19.8,     29.7,     29.7,     39.6      ],
		[15.0,   99.0,     20.0,     62.0,     0.0,      1.0,      100.0,  0.0, 18.1053,  0.0,      0, 0, 0, 0, 0, 0, 0, 0, 0, 0, 0, 1.0, 0.95,   117.65,   19.8,     29.7,     29.7,     39.6      ],
		[1612.0, 80.6,     23.4,     62.0,     0.0,      1.0,      100.0,  1.0, 100.0,    0.0,      0, 0, 0, 0, 0, 0, 0, 0, 0, 0, 0, 0.0, 0.95,   117.65,   20.0,     30.0,     30.0,     40.0      ],
		[1609.0, 85.9,     28.5,     62.0,     0.0,      1.0,      100.0,  1.0, 100.0,    0.0,      0, 0, 0, 0, 0, 0, 0, 0, 0, 0, 0, 0.0, 0.95,   117.65,   20.0,     30.0,     30.0,     40.0      ],
		[1691.0, 100.8,    44.0,     123.9,    0.0,      1.0,      100.0,  1.0, 150.0,    0.0,      0, 0, 0, 0, 0, 0, 0, 0, 0, 0, 0, 0.0, 0.95,   176.471,  30.0,     45.0,     45.0,     60.0      ],
		[1662.0, 106.9,    43.8,     123.9,    0.0,      1.0,      100.0,  0.0, 150.0,    0.0,      0, 0, 0, 0, 0, 0, 0, 0, 0, 0, 0, 0.0, 0.95,   176.471,  30.0,     45.0,     45.0,     60.0      ],
		[1731.0, 119.9,    64.6,     123.9,    0.0,      1.0,      100.0,  1.0, 200.0,    0.0,      0, 0, 0, 0, 0, 0, 0, 0, 0, 0, 0, 0.0, 0.95,   235.29,   40.0,     60.0,     60.0,     80.0      ],
		[1730.0, 121.8,    59.9,     123.9,    0.0,      1.0,      100.0,  1.0, 200.0,    0.0,      0, 0, 0, 0, 0, 0, 0, 0, 0, 0, 0, 0.0, 0.95,   235.29,   40.0,     60.0,     60.0,     80.0      ],
		[1649.0, 200.0,    180.0,    185.9,    0.0,      1.0,      100.0,  1.0, 300.0,    0.0,      0, 0, 0, 0, 0, 0, 0, 0, 0, 0, 0, 0.0, 0.95,   352.94,   60.0,     90.0,     90.0,     120.0     ],
		[32.0,   200.0,    34.0,     216.9,    0.0,      1.015,    100.0,  1.0, 350.0,    0.0,      0, 0, 0, 0, 0, 0, 0, 0, 0, 0, 0, 0.0, 0.95,   411.76,   70.0,     105.0,    105.0,    140.0     ],
		[1651.0, 300.0,    166.0,    166.0,    0.0,      1.0,      100.0,  1.0, 300.0,    0.0,      0, 0, 0, 0, 0, 0, 0, 0, 0, 0, 0, 0.0, 0.95,   342.86,   60.0,     90.0,     90.0,     120.0     ],
		[1653.0, 300.0,    166.0,    166.0,    0.0,      1.0,      100.0,  1.0, 300.0,    0.0,      0, 0, 0, 0, 0, 0, 0, 0, 0, 0, 0, 0.0, 0.95,   342.86,   60.0,     90.0,     90.0,     120.0     ],
		[1654.0, 300.0,    166.0,    166.0,    0.0,      1.0,      100.0,  0.0, 300.0,    0.0,      0, 0, 0, 0, 0, 0, 0, 0, 0, 0, 0, 0.0, 0.95,   342.86,   60.0,     90.0,     90.0,     120.0     ],
		[1674.0, 300.0,    166.0,    166.0,    0.0,      1.0,      100.0,  0.0, 300.0,    0.0,      0, 0, 0, 0, 0, 0, 0, 0, 0, 0, 0, 0.0, 0.95,   342.86,   60.0,     90.0,     90.0,     120.0     ],
		[20.0,   49.5,     19.0,     62.0,     0.0,      1.0,      100.0,  0.0, 5.4516,   0.0,      0, 0, 0, 0, 0, 0, 0, 0, 0, 0, 0, 1.0, 0.95,   117.65,   19.8,     29.7,     29.7,     39.6      ],
		[1668.0, 600.0,    283.0,    290.6,    0.0,      1.0,      100.0,  1.0, 600.0,    0.0,      0, 0, 0, 0, 0, 0, 0, 0, 0, 0, 0, 0.0, 0.95,   666.67,   120.0,    180.0,    180.0,    240.0     ],
		[1727.0, 200.0,    54.0,     130.1,    0.0,      0.98,     100.0,  0.0, 210.0,    0.0,      0, 0, 0, 0, 0, 0, 0, 0, 0, 0, 0, 0.0, 0.95,   247.06,   42.0,     63.0,     63.0,     84.0      ],
		[1726.0, 120.7,    61.9,     123.9,    0.0,      0.98,     100.0,  0.0, 200.0,    0.0,      0, 0, 0, 0, 0, 0, 0, 0, 0, 0, 0, 0.0, 0.95,   235.29,   40.0,     60.0,     60.0,     80.0      ],
		[1697.0, 450.0,    154.0,    290.6,    0.0,      1.0,      100.0,  1.0, 600.0,    0.0,      0, 0, 0, 0, 0, 0, 0, 0, 0, 0, 0, 0.0, 0.95,   666.67,   120.0,    180.0,    180.0,    240.0     ],
		[1643.0, 345.0,    100.0,    62.0,     0.0,      1.0,      100.0,  0.0, 100.0,    0.0,      0, 0, 0, 0, 0, 0, 0, 0, 0, 0, 0, 0.0, 0.95,   117.65,   19.8,     29.7,     29.7,     39.6      ],
		[1725.0, 142.8,    36.0,     123.9,    0.0,      1.0,      100.0,  1.0, 200.0,    0.0,      0, 0, 0, 0, 0, 0, 0, 0, 0, 0, 0, 0.0, 0.95,   235.29,   40.0,     60.0,     60.0,     80.0      ],
		[1724.0, 138.7,    67.0,     123.9,    0.0,      1.0,      100.0,  1.0, 200.0,    0.0,      0, 0, 0, 0, 0, 0, 0, 0, 0, 0, 0, 0.0, 0.95,   235.29,   40.0,     60.0,     60.0,     80.0      ],
		[1710.0, 128.8,    69.5,     123.9,    0.0,      1.0,      100.0,  1.0, 200.0,    0.0,      0, 0, 0, 0, 0, 0, 0, 0, 0, 0, 0, 0.0, 0.95,   235.294,  40.0,     60.0,     60.0,     80.0      ],
		[1672.0, 184.5,    123.5,    185.9,    0.0,      1.0,      100.0,  1.0, 300.0,    0.0,      0, 0, 0, 0, 0, 0, 0, 0, 0, 0, 0, 0.0, 0.95,   352.94,   60.0,     90.0,     90.0,     120.0     ],
		[1671.0, 181.3,    127.5,    185.9,    0.0,      1.0,      100.0,  1.0, 300.0,    0.0,      0, 0, 0, 0, 0, 0, 0, 0, 0, 0, 0, 0.0, 0.95,   352.94,   60.0,     90.0,     90.0,     120.0     ],
		[1723.0, 34.9,     3.9,      20.0,     0.0,      1.0,      100.0,  0.0, 50.0,     0.0,      0, 0, 0, 0, 0, 0, 0, 0, 0, 0, 0, 0.0, 0.95,   58.0,     10.0,     15.0,     15.0,     20.0      ],
		[1722.0, 90.0,     1.0,      50.0,     0.0,      1.01,     100.0,  1.0, 90.0,     0.0,      0, 0, 0, 0, 0, 0, 0, 0, 0, 0, 0, 0.0, 0.95,   100.0,    18.0,     27.0,     27.0,     36.0      ],
		[1721.0, 90.0,     1.0,      50.0,     0.0,      1.0,      100.0,  0.0, 90.0,     0.0,      0, 0, 0, 0, 0, 0, 0, 0, 0, 0, 0, 0.0, 0.95,   100.0,    18.0,     27.0,     27.0,     36.0      ],
		[1720.0, 90.0,     1.0,      50.0,     0.0,      1.0,      100.0,  0.0, 90.0,     0.0,      0, 0, 0, 0, 0, 0, 0, 0, 0, 0, 0, 0.0, 0.95,   100.0,    18.0,     27.0,     27.0,     36.0      ],
		[1719.0, 90.0,     1.0,      50.0,     0.0,      1.0,      100.0,  0.0, 90.0,     0.0,      0, 0, 0, 0, 0, 0, 0, 0, 0, 0, 0, 0.0, 0.95,   100.0,    18.0,     27.0,     27.0,     36.0      ],
		[1646.0, 125.0,    40.0,     80.0,     0.0,      1.03,     100.0,  1.0, 125.0,    0.0,      0, 0, 0, 0, 0, 0, 0, 0, 0, 0, 0, 0.0, 0.95,   177.177,  31.4,     47.1,     47.1,     62.8      ],
		[1647.0, 125.0,    40.0,     80.0,     0.0,      1.03,     100.0,  1.0, 125.0,    0.0,      0, 0, 0, 0, 0, 0, 0, 0, 0, 0, 0, 0.0, 0.95,   177.177,  31.4,     47.1,     47.1,     62.8      ],
		[1676.0, 159.5,    85.5,     123.9,    0.0,      1.0,      100.0,  1.0, 200.0,    0.0,      0, 0, 0, 0, 0, 0, 0, 0, 0, 0, 0, 0.0, 0.95,   235.29,   40.0,     60.0,     60.0,     80.0      ],
		[1675.0, 159.5,    79.9,     123.9,    0.0,      1.0,      100.0,  1.0, 200.0,    0.0,      0, 0, 0, 0, 0, 0, 0, 0, 0, 0, 0, 0.0, 0.95,   235.29,   40.0,     60.0,     60.0,     80.0      ],
		[1718.0, 610.2,    90.7,     387.5,    0.0,      1.0,      100.0,  1.0, 800.0,    0.0,      0, 0, 0, 0, 0, 0, 0, 0, 0, 0, 0, 0.0, 0.95,   888.89,   160.0,    240.0,    240.0,    320.0     ],
		[1717.0, 574.5,    167.0,    387.5,    0.0,      1.0,      100.0,  1.0, 800.0,    0.0,      0, 0, 0, 0, 0, 0, 0, 0, 0, 0, 0, 0.0, 0.95,   888.89,   160.0,    240.0,    240.0,    320.0     ],
		[1692.0, 1004.3,   224.5,    484.0,    0.0,      1.0,      100.0,  1.0, 1000.0,   0.0,      0, 0, 0, 0, 0, 0, 0, 0, 0, 0, 0, 0.0, 0.95,   1120.0,   201.6,    302.4,    302.4,    403.2     ],
		[1663.0, 814.4,    190.8,    484.0,    0.0,      1.0,      100.0,  1.0, 1000.0,   0.0,      0, 0, 0, 0, 0, 0, 0, 0, 0, 0, 0, 0.0, 0.95,   1120.0,   201.6,    302.4,    302.4,    403.2     ],
		[1709.0, 105.1,    50.2,     77.46,    0.0,      1.03,     100.0,  1.0, 135.0,    0.0,      0, 0, 0, 0, 0, 0, 0, 0, 0, 0, 0, 0.0, 0.95,   147.06,   27.0,     40.5,     40.5,     54.0      ],
		[1708.0, 101.3,    47.1,     77.46,    0.0,      1.03,     100.0,  1.0, 135.0,    0.0,      0, 0, 0, 0, 0, 0, 0, 0, 0, 0, 0, 0.0, 0.95,   147.06,   27.0,     40.5,     40.5,     54.0      ],
		[5.0,    49.5,     19.0,     62.0,     0.0,      1.0,      100.0,  1.0, 12.7717,  0.0,      0, 0, 0, 0, 0, 0, 0, 0, 0, 0, 0, 1.0, 0.95,   117.65,   19.8,     29.7,     29.7,     39.6      ],
		[29.0,   49.5,     19.0,     62.0,     0.0,      1.0,      100.0,  0.0, 8.5047,   0.0,      0, 0, 0, 0, 0, 0, 0, 0, 0, 0, 0, 1.0, 0.95,   117.65,   19.8,     29.7,     29.7,     39.6      ],
		[2042.0, 39.5,     8.5,      20.0,     0.0,      1.0,      100.0,  0.0, 45.0,     0.0,      0, 0, 0, 0, 0, 0, 0, 0, 0, 0, 0, 0.0, 0.95,   52.94,    9.0,      13.5,     13.5,     18.0      ],
		[2040.0, 38.7,     4.5,      20.0,     0.0,      1.0,      100.0,  0.0, 45.0,     0.0,      0, 0, 0, 0, 0, 0, 0, 0, 0, 0, 0, 0.0, 0.95,   52.94,    9.0,      13.5,     13.5,     18.0      ],
		[2039.0, 39.0,     4.8,      20.0,     0.0,      1.0,      100.0,  0.0, 45.0,     0.0,      0, 0, 0, 0, 0, 0, 0, 0, 0, 0, 0, 0.0, 0.95,   52.94,    9.0,      13.5,     13.5,     18.0      ],
		[2037.0, 40.1,     6.6,      20.0,     0.0,      1.0,      100.0,  0.0, 45.0,     0.0,      0, 0, 0, 0, 0, 0, 0, 0, 0, 0, 0, 0.0, 0.95,   52.94,    9.0,      13.5,     13.5,     18.0      ],
		[1599.0, 50.0,     27.0,     20.0,     0.0,      1.0,      100.0,  0.0, 45.0,     0.0,      0, 0, 0, 0, 0, 0, 0, 0, 0, 0, 0, 0.0, 0.95,   60.0,     10.0,     15.0,     15.0,     20.0      ],
		[1597.0, 50.0,     27.0,     20.0,     0.0,      1.0,      100.0,  0.0, 45.0,     0.0,      0, 0, 0, 0, 0, 0, 0, 0, 0, 0, 0, 0.0, 0.95,   60.0,     10.0,     15.0,     15.0,     20.0      ],
		[1661.0, 99.0,     19.0,     62.0,     0.0,      1.0,      100.0,  0.0, 8.3617,   0.0,      0, 0, 0, 0, 0, 0, 0, 0, 0, 0, 0, 1.0, 0.95,   117.65,   19.8,     29.7,     29.7,     39.6      ],
		[1699.0, 597.1,    168.2,    290.6,    0.0,      1.0,      100.0,  1.0, 600.0,    0.0,      0, 0, 0, 0, 0, 0, 0, 0, 0, 0, 0, 0.0, 0.95,   666.67,   120.0,    180.0,    180.0,    240.0     ],
		[1698.0, 551.0,    167.2,    290.6,    0.0,      1.0,      100.0,  0.0, 600.0,    0.0,      0, 0, 0, 0, 0, 0, 0, 0, 0, 0, 0, 0.0, 0.95,   666.67,   120.0,    180.0,    180.0,    240.0     ],
		[1714.0, 213.5,    57.0,     185.9,    0.0,      1.0,      100.0,  1.0, 300.0,    0.0,      0, 0, 0, 0, 0, 0, 0, 0, 0, 0, 0, 0.0, 0.95,   352.94,   60.0,     90.0,     90.0,     120.0     ],
		[1713.0, 235.0,    71.0,     185.9,    0.0,      1.0,      100.0,  1.0, 300.0,    0.0,      0, 0, 0, 0, 0, 0, 0, 0, 0, 0, 0, 0.0, 0.95,   352.94,   60.0,     90.0,     90.0,     120.0     ],
		[1716.0, 222.7,    53.2,     185.9,    0.0,      1.0,      100.0,  0.0, 300.0,    0.0,      0, 0, 0, 0, 0, 0, 0, 0, 0, 0, 0, 0.0, 0.95,   352.94,   60.0,     90.0,     90.0,     120.0     ],
		[1715.0, 202.3,    59.3,     185.9,    0.0,      1.0,      100.0,  1.0, 300.0,    0.0,      0, 0, 0, 0, 0, 0, 0, 0, 0, 0, 0, 0.0, 0.95,   352.94,   60.0,     90.0,     90.0,     120.0     ],
		[1680.0, 20.6,     6.6,      4.95,     -0.0,     1.0,      100.0,  1.0, 9.2453,   0.0,      0, 0, 0, 0, 0, 0, 0, 0, 0, 0, 0, 1.0, 0.95,   49.5,     9.9,      14.85,    14.85,    19.8      ],
		[1658.0, 99.0,     19.0,     62.0,     0.0,      1.0,      100.0,  0.0, 18.2667,  0.0,      0, 0, 0, 0, 0, 0, 0, 0, 0, 0, 0, 1.0, 0.95,   117.65,   19.8,     29.7,     29.7,     39.6      ],
		[21.0,   49.5,     19.0,     62.0,     0.0,      1.0,      100.0,  0.0, 16.2171,  0.0,      0, 0, 0, 0, 0, 0, 0, 0, 0, 0, 0, 1.0, 0.95,   117.65,   19.8,     29.7,     29.7,     39.6      ],
		[1667.0, 594.9,    157.8,    290.6,    0.0,      1.03,     100.0,  1.0, 600.0,    0.0,      0, 0, 0, 0, 0, 0, 0, 0, 0, 0, 0, 0.0, 0.95,   666.67,   120.0,    180.0,    180.0,    240.0     ],
		[1673.0, 600.0,    137.0,    290.6,    0.0,      1.03,     100.0,  1.0, 600.0,    0.0,      0, 0, 0, 0, 0, 0, 0, 0, 0, 0, 0, 0.0, 0.95,   666.67,   120.0,    180.0,    180.0,    240.0     ],
		[1712.0, 256.7,    92.1,     185.9,    0.0,      1.0,      100.0,  1.0, 300.0,    0.0,      0, 0, 0, 0, 0, 0, 0, 0, 0, 0, 0, 0.0, 0.95,   352.94,   60.0,     90.0,     90.0,     120.0     ],
		[1711.0, 256.7,    75.7,     185.9,    0.0,      1.0,      100.0,  1.0, 300.0,    0.0,      0, 0, 0, 0, 0, 0, 0, 0, 0, 0, 0, 0.0, 0.95,   352.94,   60.0,     90.0,     90.0,     120.0     ],
		[1749.0, 564.0,    103.0,    290.6,    0.0,      1.0,      100.0,  1.0, 600.0,    0.0,      0, 0, 0, 0, 0, 0, 0, 0, 0, 0, 0, 0.0, 0.95,   666.67,   120.0,    180.0,    180.0,    240.0     ],
		[1748.0, 543.0,    116.0,    290.6,    0.0,      1.0,      100.0,  0.0, 600.0,    0.0,      0, 0, 0, 0, 0, 0, 0, 0, 0, 0, 0, 0.0, 0.95,   666.67,   120.0,    180.0,    180.0,    240.0     ],
		[1684.0, 235.0,    80.0,     185.9,    0.0,      1.0,      100.0,  1.0, 330.0,    0.0,      0, 0, 0, 0, 0, 0, 0, 0, 0, 0, 0, 0.0, 0.95,   388.0,    66.0,     99.0,     99.0,     132.0     ],
		[1683.0, 234.4,    74.8,     185.9,    0.0,      1.0,      100.0,  1.0, 330.0,    0.0,      0, 0, 0, 0, 0, 0, 0, 0, 0, 0, 0, 0.0, 0.95,   388.0,    66.0,     99.0,     99.0,     132.0     ],
		[22.0,   49.5,     19.0,     62.0,     0.0,      1.0,      100.0,  1.0, 16.2171,  0.0,      0, 0, 0, 0, 0, 0, 0, 0, 0, 0, 0, 1.0, 0.95,   117.65,   19.8,     29.7,     29.7,     39.6      ],
		[1660.0, 99.0,     19.0,     62.0,     0.0,      1.0,      100.0,  0.0, 18.5991,  0.0,      0, 0, 0, 0, 0, 0, 0, 0, 0, 0, 0, 1.0, 0.95,   117.65,   19.8,     29.7,     29.7,     39.6      ],
		[1689.0, 114.9,    -7.7,     62.0,     0.0,      1.0,      100.0,  1.0, 7.2989,   0.0,      0, 0, 0, 0, 0, 0, 0, 0, 0, 0, 0, 1.0, 0.95,   117.65,   19.8,     29.7,     29.7,     39.6      ],
		[117.0,  99.0,     15.0,     62.0,     0.0,      1.0,      100.0,  0.0, 18.6699,  0.0,      0, 0, 0, 0, 0, 0, 0, 0, 0, 0, 0, 1.0, 0.95,   117.65,   19.8,     29.7,     29.7,     39.6      ],
		[110.0,  99.0,     15.0,     62.0,     0.0,      1.0,      100.0,  0.0, 13.8355,  0.0,      0, 0, 0, 0, 0, 0, 0, 0, 0, 0, 0, 1.0, 0.95,   117.65,   19.8,     29.7,     29.7,     39.6      ],
		[108.0,  99.0,     15.0,     62.0,     0.0,      1.0,      100.0,  0.0, 9.8728,   0.0,      0, 0, 0, 0, 0, 0, 0, 0, 0, 0, 0, 1.0, 0.95,   117.65,   19.8,     29.7,     29.7,     39.6      ],
		[1688.0, 91.2,     -3.3,     62.0,     0.0,      1.0,      100.0,  1.0, 1.1544,   0.0,      0, 0, 0, 0, 0, 0, 0, 0, 0, 0, 0, 1.0, 0.95,   117.65,   19.8,     29.7,     29.7,     39.6      ],
		[118.0,  99.0,     15.0,     62.0,     0.0,      1.0,      100.0,  0.0, 12.4622,  0.0,      0, 0, 0, 0, 0, 0, 0, 0, 0, 0, 0, 1.0, 0.95,   117.65,   19.8,     29.7,     29.7,     39.6      ],
		[111.0,  50.0,     10.0,     62.0,     0.0,      1.0,      100.0,  0.0, 22.1403,  0.0,      0, 0, 0, 0, 0, 0, 0, 0, 0, 0, 0, 1.0, 0.95,   117.65,   19.8,     29.7,     29.7,     39.6      ],
		[107.0,  50.0,     10.0,     62.0,     0.0,      1.0,      100.0,  0.0, 10.5627,  0.0,      0, 0, 0, 0, 0, 0, 0, 0, 0, 0, 0, 1.0, 0.95,   117.65,   19.8,     29.7,     29.7,     39.6      ],
		[1751.0, 497.9,    119.0,    290.6,    0.0,      1.0,      100.0,  0.0, 600.0,    0.0,      0, 0, 0, 0, 0, 0, 0, 0, 0, 0, 0, 0.0, 0.95,   666.67,   120.0,    180.0,    180.0,    240.0     ],
		[1750.0, 506.0,    142.0,    290.6,    0.0,      1.0,      100.0,  1.0, 600.0,    0.0,      0, 0, 0, 0, 0, 0, 0, 0, 0, 0, 0, 0.0, 0.95,   666.67,   120.0,    180.0,    180.0,    240.0     ]
	])
	ppc["branch"] = array([
		[1418.0, 2021.0, 0.000709,      0.03936,       0.0061,        400.0,    0.0,0.0,0.0,      0.0,1.0,-30.0,    30.0,     0.1     ],
		[541.0,  2024.0, 0.0,           1e-05,         0.0,           400.0,    0.0,0.0,0.0,      0.0,1.0,-30.0,    30.0,     0.1     ],
		[540.0,  2024.0, 0.0,           1e-06,         0.0,           400.0,    0.0,0.0,0.0,      0.0,1.0,-30.0,    30.0,     0.1     ],
		[1545.0, 1418.0, 0.00764,       0.040964,      0.06498,       70.0,     0.0,0.0,0.0,      0.0,1.0,-30.0,    30.0,     0.1     ],
		[1545.0, 1418.0, 0.007179,      0.042257,      0.064288,      70.0,     0.0,0.0,0.0,      0.0,1.0,-30.0,    30.0,     0.1     ],
		[1545.0, 2021.0, 0.0124,        0.0812,        0.1232,        400.0,    0.0,0.0,0.0,      0.0,1.0,-30.0,    30.0,     0.1     ],
		[542.0,  1960.0, 0.001528,      0.02064,       2.0724,        400.0,    0.0,0.0,0.0,      0.0,1.0,-30.0,    30.0,     0.1     ],
		[539.0,  1960.0, 0.00172,       0.02296,       2.21372,       400.0,    0.0,0.0,0.0,      0.0,1.0,-30.0,    30.0,     0.1     ],
		[2234.0, 2233.0, 0.0,           0.187,         0.281,         100.0,    0.0,0.0,0.0,      0.0,1.0,-30.0,    30.0,     0.1     ],
		[1870.0, 1871.0, 0.0055,        0.2,           0.3,           100.0,    0.0,0.0,0.0,      0.0,1.0,-30.0,    30.0,     0.1     ],
		[1821.0, 1804.0, 0.0017,        0.0122,        0.03806,       100.0,    0.0,0.0,0.0,      0.0,1.0,-30.0,    30.0,     0.1     ],
...